\contentsline {section}{Introduction}{1}
\contentsline {section}{Running MODPATH Shapefile Exporter}{1}
\contentsline {section}{Endpoint Shapefile}{3}
\contentsline {section}{Pathline Shapefile}{4}
\contentsline {section}{Timeseries Shapefile}{4}
\contentsfinish 
